333255
     RDKit          3D

 37 37  0  0  1  0  0  0  0  0999 V2000
    6.8794   -0.3507   56.3646 O   0  0  0  0  0  0  0  0  0  0  0  0
    8.0034    1.7301   53.1714 O   0  0  0  0  0  0  0  0  0  0  0  0
    4.9796   -0.5283   53.3131 O   0  0  0  0  0  0  0  0  0  0  0  0
    3.3032   -1.8643   54.0563 O   0  0  0  0  0  0  0  0  0  0  0  0
    8.9415    0.9921   55.1643 N   0  0  0  0  0  0  0  0  0  0  0  0
    6.8818   -1.8132   54.5604 N   0  0  0  0  0  0  0  0  0  0  0  0
    7.7969    4.2657   54.2051 N   0  0  0  0  0  0  0  0  0  0  0  0
    8.8245   -0.4235   54.9203 C   0  0  1  0  0  0  0  0  0  0  0  0
    9.9049   -1.2284   55.6517 C   0  0  0  0  0  0  0  0  0  0  0  0
   11.2368   -1.1965   54.9428 C   0  0  0  0  0  0  0  0  0  0  0  0
    7.4378   -0.8489   55.3896 C   0  0  0  0  0  0  0  0  0  0  0  0
   11.5265   -2.1672   53.9967 C   0  0  0  0  0  0  0  0  0  0  0  0
   12.1467   -0.1968   55.2499 C   0  0  0  0  0  0  0  0  0  0  0  0
    8.5181    1.9616   54.2632 C   0  0  0  0  0  0  0  0  0  0  0  0
    5.5553   -2.3544   54.7509 C   0  0  0  0  0  0  0  0  0  0  0  0
   12.7575   -2.1377   53.3412 C   0  0  0  0  0  0  0  0  0  0  0  0
   13.3775   -0.1674   54.5943 C   0  0  0  0  0  0  0  0  0  0  0  0
    8.7927    3.3639   54.7662 C   0  0  0  0  0  0  0  0  0  0  0  0
   13.6828   -1.1379   53.6399 C   0  0  0  0  0  0  0  0  0  0  0  0
    4.4931   -1.5758   54.0183 C   0  0  0  0  0  0  0  0  0  0  0  0
    8.8948   -0.5840   53.8368 H   0  0  0  0  0  0  0  0  0  0  0  0
    9.5906   -2.2766   55.7505 H   0  0  0  0  0  0  0  0  0  0  0  0
   10.0257   -0.8717   56.6838 H   0  0  0  0  0  0  0  0  0  0  0  0
    9.3067    1.2878   56.0652 H   0  0  0  0  0  0  0  0  0  0  0  0
   10.8113   -2.9483   53.7551 H   0  0  0  0  0  0  0  0  0  0  0  0
   11.9190    0.5633   55.9916 H   0  0  0  0  0  0  0  0  0  0  0  0
    7.4165   -2.1570   53.7681 H   0  0  0  0  0  0  0  0  0  0  0  0
    5.5649   -3.3787   54.3684 H   0  0  0  0  0  0  0  0  0  0  0  0
    5.3161   -2.3507   55.8184 H   0  0  0  0  0  0  0  0  0  0  0  0
   12.9949   -2.8928   52.5975 H   0  0  0  0  0  0  0  0  0  0  0  0
   14.0982    0.6112   54.8267 H   0  0  0  0  0  0  0  0  0  0  0  0
    9.7975    3.6602   54.4502 H   0  0  0  0  0  0  0  0  0  0  0  0
    8.7449    3.4042   55.8586 H   0  0  0  0  0  0  0  0  0  0  0  0
   14.6411   -1.1147   53.1293 H   0  0  0  0  0  0  0  0  0  0  0  0
    6.8625    3.9637   54.4780 H   0  0  0  0  0  0  0  0  0  0  0  0
    7.8278    4.2269   53.1871 H   0  0  0  0  0  0  0  0  0  0  0  0
    4.2697   -0.0384   52.8458 H   0  0  0  0  0  0  0  0  0  0  0  0
  1 11  2  0
  2 14  2  0
  3 20  1  0
  3 37  1  0
  4 20  2  0
  5  8  1  0
  5 14  1  0
  5 24  1  0
  6 11  1  0
  6 15  1  0
  6 27  1  0
  7 18  1  0
  7 35  1  0
  7 36  1  0
  8  9  1  0
  8 11  1  0
  8 21  1  6
  9 10  1  0
  9 22  1  0
  9 23  1  0
 10 12  2  0
 10 13  1  0
 12 16  1  0
 12 25  1  0
 13 17  2  0
 13 26  1  0
 14 18  1  0
 15 20  1  0
 15 28  1  0
 15 29  1  0
 16 19  2  0
 16 30  1  0
 17 19  1  0
 17 31  1  0
 18 32  1  0
 18 33  1  0
 19 34  1  0
M  END
>  <PUBCHEM_COMPOUND_CID>  (1) 
333255

>  <PUBCHEM_CONFORMER_RMSD>  (1) 
0.8

>  <PUBCHEM_CONFORMER_DIVERSEORDER>  (1) 
1
80
104
102
30
37
165
90
18
17
159
79
115
13
140
130
149
19
125
69
39
66
141
47
119
28
142
150
51
43
82
57
128
156
34
62
135
14
74
157
61
95
110
147
78
94
155
3
163
36
53
9
153
144
6
31
44
88
7
27
20
29
85
12
35
59
166
101
109
131
161
60
26
122
87
25
48
129
134
152
146
54
138
50
100
84
71
121
98
63
143
136
116
10
106
4
52
105
92
151
145
21
24
22
113
56
64
5
117
32
133
126
46
162
158
97
68
67
77
11
45
8
33
76
118
73
124
164
83
89
132
81
112
91
55
96
114
154
70
49
41
120
127
148
111
38
123
15
137
86
99
160
107
72
42
139
103
93
108
167
75
2
65
16
23
40
58

>  <PUBCHEM_MMFF94_PARTIAL_CHARGES>  (1) 
30
1 -0.57
10 -0.14
11 0.57
12 -0.15
13 -0.15
14 0.57
15 0.36
16 -0.15
17 -0.15
18 0.33
19 -0.15
2 -0.57
20 0.66
24 0.37
25 0.15
26 0.15
27 0.37
3 -0.65
30 0.15
31 0.15
34 0.15
35 0.36
36 0.36
37 0.5
4 -0.57
5 -0.73
6 -0.73
7 -0.99
8 0.36
9 0.14

>  <PUBCHEM_EFFECTIVE_ROTOR_COUNT>  (1) 
9

>  <PUBCHEM_PHARMACOPHORE_FEATURES>  (1) 
10
1 1 acceptor
1 2 acceptor
1 3 acceptor
1 4 acceptor
1 5 donor
1 6 donor
1 7 cation
1 7 donor
3 3 4 20 anion
6 10 12 13 16 17 19 rings

>  <PUBCHEM_HEAVY_ATOM_COUNT>  (1) 
20

>  <PUBCHEM_ATOM_DEF_STEREO_COUNT>  (1) 
0

>  <PUBCHEM_ATOM_UDEF_STEREO_COUNT>  (1) 
1

>  <PUBCHEM_BOND_DEF_STEREO_COUNT>  (1) 
0

>  <PUBCHEM_BOND_UDEF_STEREO_COUNT>  (1) 
0

>  <PUBCHEM_ISOTOPIC_ATOM_COUNT>  (1) 
0

>  <PUBCHEM_COMPONENT_COUNT>  (1) 
1

>  <PUBCHEM_CACTVS_TAUTO_COUNT>  (1) 
4

>  <PUBCHEM_CONFORMER_ID>  (1) 
000515C700000001

>  <PUBCHEM_MMFF94_ENERGY>  (1) 
39.3591

>  <PUBCHEM_FEATURE_SELFOVERLAP>  (1) 
50.805

>  <PUBCHEM_SHAPE_FINGERPRINT>  (1) 
10498660 4 18335417924702901574
11045515 52 18411136948316990953
116883 192 18410571769054152844
12788726 201 18261387797966824410
13149001 5 17824830180766268499
13583140 156 14764060083003585618
13590594 115 18408612457289116937
14178000 29 18271242828219252319
14251757 5 18263636265508789701
14790565 3 17834674894739710405
15849732 13 18269855142162012745
167882 2 17830735718117685316
17357779 13 18411128143338531260
1813 80 18200890538029501599
20671657 53 18341898532157451771
20871999 31 18335421244586189655
21285901 2 18201723920593772246
21524375 3 17178563260829421000
21618674 68 18412268367715647316
22620623 9 18198071274283330820
23402539 116 18333734602914167882
23557571 272 18409163295075391270
23558518 356 17755856420486279547
2871803 45 18413110546141175750
46194498 28 18049420824572173103
465052 167 14333128636774011023
5283173 99 18187074018916880236
532947 4 17906741654369307524
57262259 84 18269839726622241796
621550 34 18130212848902390816
6443956 14 18265050412938563668
68521 5 18408602530738266108
6913067 236 18129361813917681786
7164475 11 18190735337304030570
7364860 26 18050000288394999153
7399639 24 18201987851324826072
81228 2 18187932711928796992

>  <PUBCHEM_SHAPE_MULTIPOLES>  (1) 
373.17
9.16
3.75
1.19
0.35
6.24
-0.09
-7.74
2.93
2.21
0.76
0.06
-0.11
0.56

>  <PUBCHEM_SHAPE_SELFOVERLAP>  (1) 
759.747

>  <PUBCHEM_SHAPE_VOLUME>  (1) 
214.3

>  <PUBCHEM_COORDINATE_TYPE>  (1) 
2
5
10

$$$$
